
**** 12/16/20 16:10:35 ******* PSpice 17.4.0 (Nov 2018) ******* ID# 0 ********

 ** Profile: "SCHEMATIC1-ac_sweep"  [ C:\Users\a0232073\Desktop\GWL_Models\OPA695\AppendScript\OPA695_PSPICE\opa695_pspice-pspicefile


 ****     CIRCUIT DESCRIPTION


******************************************************************************




** Creating circuit file "ac_sweep.cir" 
** WARNING: THIS AUTOMATICALLY GENERATED FILE MAY BE OVERWRITTEN BY SUBSEQUENT SIMULATIONS

*Libraries: 
* Profile Libraries :
* Local Libraries :
.LIB "../../../opa695_a.lib" 
* From [PSPICE NETLIST] section of C:\SPB_Data\cdssetup\OrCAD_PSpiceTIPSpice_Install\17.4.0\PSpice.ini file:
.lib "nom_pspti.lib" 
.lib "nom.lib" 

*Analysis directives: 
.AC DEC 31 1k 1G
.OPTIONS ADVCONV
.PROBE64 V(alias(*)) I(alias(*)) W(alias(*)) D(alias(*)) NOISE(alias(*)) 
.INC "..\SCHEMATIC1.net" 



**** INCLUDING SCHEMATIC1.net ****
* source OPA695_PSPICE
X_U1         N00308 N00315 OUT VCC VEE OPA695
R_R1         N00315 OUT  1k TC=0,0 
R_R2         0 N00315  1k TC=0,0 
V_V1         VEE 0 -5Vdc
V_V2         VCC 0 5Vdc
V_V3         N00308 0 DC 0Vdc AC 1Vac 

**** RESUMING ac_sweep.cir ****
.END

INFO(ORPSIM-15423): Unable to find index file opa695_a.ind for library file opa695_a.lib.

INFO(ORPSIM-15422): Making new index file opa695_a.ind for library file opa695_a.lib.

Index has 15 entries from 1 file(s).

INFO(ORPSIM-16573): AC analysis does not support expression evaluation at each frequency. ABM devices with non-linear operations will be evaluated only at bias point.

**** 12/16/20 16:10:35 ******* PSpice 17.4.0 (Nov 2018) ******* ID# 0 ********

 ** Profile: "SCHEMATIC1-ac_sweep"  [ C:\Users\a0232073\Desktop\GWL_Models\OPA695\AppendScript\OPA695_PSPICE\opa695_pspice-pspicefile


 ****     Diode MODEL PARAMETERS


******************************************************************************




               X_U1.X_E_N.DVN  X_U1.X_I_NP.DVNF 
          IS  100.000000E-18  100.000000E-18 
          KF  316.227800E-12  316.227800E-12 


               X_U1.X_I_NP2.DVNF 
          IS  100.000000E-18 
          KF  316.227800E-12 


**** 12/16/20 16:10:35 ******* PSpice 17.4.0 (Nov 2018) ******* ID# 0 ********

 ** Profile: "SCHEMATIC1-ac_sweep"  [ C:\Users\a0232073\Desktop\GWL_Models\OPA695\AppendScript\OPA695_PSPICE\opa695_pspice-pspicefile


 ****     Resistor MODEL PARAMETERS


******************************************************************************




               X_U1.R_NOISE    X_U1.R_NOISELESS 
  T_Measured   27              27            
   T_Current   27            -273.15         
           R    1               1            


ERROR(ORPSIM-16583): Detected an imported model containing transistors or diodes. For such models, PSpice for TI supports a minimum of one and maximum of three traces. Reduce the number of traces and simulate again.


ABORTING SIMULATION
**** 12/16/20 16:10:35 ******* PSpice 17.4.0 (Nov 2018) ******* ID# 0 ********

 ** Profile: "SCHEMATIC1-ac_sweep"  [ C:\Users\a0232073\Desktop\GWL_Models\OPA695\AppendScript\OPA695_PSPICE\opa695_pspice-pspicefile


 ****     JOB STATISTICS SUMMARY


******************************************************************************



Node counts:
  Top level (NUNODS)                =           6
  External (NCNODS)                 =          66
  Total (NUMNOD)                    =          66

Total device count (NUMEL)          =         142
  Capacitors (C)                    =          16
  Diodes (D)                        =           6
  VCVS (E)                          =          12
  VCCS (G)                          =          22
  CCVS (H)                          =           1
  Current Sources (I)               =          10
  Resistors (R)                     =          68
  Voltage Sources (V)               =           7

Number of subcircuits (X)           =          16

Matrix statistics:
  Matrix size (NSTOP)               =          86
  Initial no. elements (NTTAR)      =         318
  No. elements w/ fillin (NTTBR)    =         318
  No. fillins (IFILL)               =           0
  No. overflows (NTTOV)             =           0
  No. LU operations (IOPS)          =           0
  Percent sparsity (PERSPA)         =      95.700

Analysis statistics:
  No. total time points (NUMTTP)    =           0
  No. rejected time points (NUMRTP) =           0
  No. iterations (NUMNIT)           =           0

Load Threads                        =           1

Runtime statistics:                       Seconds      Iterations
  Matrix load                       =        0.00
  Matrix solution                   =        0.00               1
  Readin                            =        2.97
  General setup                     =        0.00
  CMI setup                     =        0.00
  Setup                             =        0.00
  DC sweep                          =        0.00               0
  Bias point                        =        0.00               0
  AC and noise                      =        0.00               0
  Total transient analysis          =        0.00
  Output                            =        0.00
  Overhead                          =         .16
  Total job time (using Solver 1)   =        2.98
